LTspice 24.0.9 for Windows
Circuit: * C:\Users\Oizom\Documents\GitHub\Oizom-Electronics-Production\Pv6_3\EC_RD\Simulations\B4-SCH.asc
Start Time: Mon Dec  9 10:54:33 2024
solver = Normal
Maximum thread count: 12
tnom = 27
temp = 27
method = modified trap
Direct Newton iteration for .op point succeeded.
Direct Newton iteration failed to find .op point.  (Use ".option noopiter" to skip.)
Starting Gmin stepping
Gmin = 10
Gmin = 1.07374
Gmin = 0.115292
Gmin = 0.0123794
Gmin = 0.00132923
Gmin = 0.000142725
Gmin = 1.5325e-05
Gmin = 1.6455e-06
Gmin = 1.76685e-07
vernier = 0.5
Gmin = 3.6596e-08
vernier = 0.666667
vernier = 0.888888
Gmin = 8.33961e-09
vernier = 1
Gmin = 1.00195e-09
Gmin = 1.07583e-10
Gmin = 1.15517e-11
Gmin = 1.24035e-12
Gmin = 1.33182e-13
Gmin = 0
Gmin stepping succeeded in finding the operating point.

Total elapsed time: 0.256 seconds.

